@<TRIPOS>MOLECULE
IMD.pdb
54 57 1 0 0
SMALL
NO_CHARGES


@<TRIPOS>ATOM
      1 C1         30.5160   45.6890   37.9560 C.ar      1 IMD    0.0000
      2 H1         30.8410   46.7120   38.1300 H         1 IMD    0.0000
      3 C2         30.3080   44.8180   39.0240 C.ar      1 IMD    0.0000
      4 H2         30.4900   45.1450   40.0430 H         1 IMD    0.0000
      5 C6         29.8520   43.5240   38.7820 C.ar      1 IMD    0.0000
      6 H6         29.6830   42.8420   39.6110 H         1 IMD    0.0000
      7 C12        29.5880   43.1020   37.4820 C.ar      1 IMD    0.0000
      8 Cl1        28.9900   41.4930   37.2480 Cl        1 IMD    0.0000
      9 C3         30.2780   45.2630   36.6540 C.ar      1 IMD    0.0000
     10 H3         30.4210   45.9550   35.8250 H         1 IMD    0.0000
     11 C7         29.8000   43.9750   36.4100 C.ar      1 IMD    0.0000
     12 C15        29.4260   43.6300   35.0640 C.ar      1 IMD    0.0000
     13 N1         30.2940   43.5110   34.0480 N.ar      1 IMD    0.0000
     14 C13        29.4990   43.3070   32.9400 C.ar      1 IMD    0.0000
     15 C20        30.0830   43.0600   31.5820 C.3       1 IMD    0.0000
     16 H14        31.0360   42.5340   31.6660 H         1 IMD    0.0000
     17 H15        29.4330   42.4450   30.9610 H         1 IMD    0.0000
     18 H16        30.2630   44.0080   31.0780 H         1 IMD    0.0000
     19 C14        28.1640   43.3970   33.2620 C.ar      1 IMD    0.0000
     20 C23        26.9600   43.3410   32.3400 C.3       1 IMD    0.0000
     21 C21        26.6200   41.9020   31.9120 C.3       1 IMD    0.0000
     22 H17        27.4290   41.4500   31.3370 H         1 IMD    0.0000
     23 H18        25.7140   41.8850   31.3020 H         1 IMD    0.0000
     24 H19        26.4400   41.2870   32.7960 H         1 IMD    0.0000
     25 C22        27.0620   44.2900   31.1250 C.3       1 IMD    0.0000
     26 H20        26.0960   44.3570   30.6190 H         1 IMD    0.0000
     27 H21        27.7940   43.9460   30.3950 H         1 IMD    0.0000
     28 H22        27.3410   45.2940   31.4520 H         1 IMD    0.0000
     29 H23        26.0960   43.6950   32.9060 H         1 IMD    0.0000
     30 N2         28.1260   43.5450   34.6200 N.ar      1 IMD    0.0000
     31 N3         26.9840   43.5730   35.4090 N.am      1 IMD    0.0000
     32 H24        26.5430   42.6770   35.5990 H         1 IMD    0.0000
     33 C16        26.5340   44.6630   36.0530 C.2       1 IMD    0.0000
     34 O1         27.0400   45.7620   35.9140 O.2       1 IMD    0.0000
     35 C8         25.3830   44.4150   36.9710 C.ar      1 IMD    0.0000
     36 C9         24.0940   44.1580   36.4770 C.ar      1 IMD    0.0000
     37 C19        23.8350   44.0750   34.9770 C.3       1 IMD    0.0000
     38 H11        22.8010   44.3200   34.7410 H         1 IMD    0.0000
     39 H12        24.4590   44.7760   34.4210 H         1 IMD    0.0000
     40 H13        24.0380   43.0640   34.6150 H         1 IMD    0.0000
     41 C4         25.6060   44.4780   38.3490 C.ar      1 IMD    0.0000
     42 H4         26.6110   44.6610   38.7260 H         1 IMD    0.0000
     43 C5         24.5520   44.3060   39.2430 C.ar      1 IMD    0.0000
     44 H5         24.7210   44.3570   40.3150 H         1 IMD    0.0000
     45 C10        23.2670   44.0860   38.7610 C.ar      1 IMD    0.0000
     46 C11        23.0360   43.9950   37.3820 C.ar      1 IMD    0.0000
     47 O3         21.7420   43.7870   36.9260 O.3       1 IMD    0.0000
     48 C18        20.7400   43.3270   37.8660 C.3       1 IMD    0.0000
     49 H9         20.9320   42.2760   38.0900 H         1 IMD    0.0000
     50 H10        19.7470   43.4390   37.4250 H         1 IMD    0.0000
     51 C17        20.8700   44.1600   39.1560 C.3       1 IMD    0.0000
     52 H7         20.7070   45.2190   38.9380 H         1 IMD    0.0000
     53 H8         20.1520   43.8310   39.9120 H         1 IMD    0.0000
     54 O2         22.2190   43.9740   39.6560 O.3       1 IMD    0.0000
@<TRIPOS>BOND
     1    1    2 1
     2    1    3 ar
     3    1    9 ar
     4    3    4 1
     5    3    5 ar
     6    5    6 1
     7    5    7 ar
     8    7    8 1
     9    7   11 ar
    10    9   10 1
    11    9   11 ar
    12   11   12 1
    13   12   13 ar
    14   12   30 ar
    15   13   14 ar
    16   14   15 1
    17   14   19 ar
    18   15   16 1
    19   15   17 1
    20   15   18 1
    21   19   20 1
    22   19   30 ar
    23   20   21 1
    24   20   25 1
    25   20   29 1
    26   21   22 1
    27   21   23 1
    28   21   24 1
    29   25   26 1
    30   25   27 1
    31   25   28 1
    32   30   31 1
    33   31   32 1
    34   31   33 am
    35   33   34 2
    36   33   35 1
    37   35   36 ar
    38   35   41 ar
    39   36   37 1
    40   36   46 ar
    41   37   38 1
    42   37   39 1
    43   37   40 1
    44   41   42 1
    45   41   43 ar
    46   43   44 1
    47   43   45 ar
    48   45   46 ar
    49   45   54 1
    50   46   47 1
    51   47   48 1
    52   48   49 1
    53   48   50 1
    54   48   51 1
    55   51   52 1
    56   51   53 1
    57   51   54 1
@<TRIPOS>SUBSTRUCTURE
     1 IMD     1 RESIDUE           4 A     IMD     0 ROOT
