@<TRIPOS>MOLECULE
D01.sdf
 59 61 0 0 0
SMALL
GASTEIGER

@<TRIPOS>ATOM
      1 C          25.3370   44.1337   37.9573 C.ar    1  D02       -0.0459
      2 C          24.3259   43.8583   38.8768 C.ar    1  D02       -0.0189
      3 C          29.2356   42.6819   36.9387 C.ar    1  D02       -0.0466
      4 C          30.0648   44.9363   36.6804 C.ar    1  D02       -0.0466
      5 C          30.0642   43.8916   38.8588 C.ar    1  D02       -0.0559
      6 C          25.0545   44.1426   36.5929 C.ar    1  D02        0.0415
      7 C          29.5122   43.7816   36.1265 C.ar    1  D02        0.0389
      8 C          22.7319   43.6174   37.0621 C.ar    1  D02       -0.0020
      9 C          29.5116   42.7369   38.3049 C.ar    1  D02       -0.0495
     10 C          30.3408   44.9913   38.0466 C.ar    1  D02       -0.0495
     11 C          23.7581   43.8840   36.1463 C.ar    1  D02       -0.0317
     12 C          23.0297   43.5867   38.4313 C.ar    1  D02        0.1239
     13 C          26.1359   44.4260   35.6583 C.2     1  D02        0.2606
     14 C          29.2187   43.7232   34.6821 C.2     1  D02        0.2632
     15 C          21.3406   43.3407   36.5678 C.3     1  D02       -0.0209
     16 C          20.3376   43.4680   37.7061 C.3     1  D02       -0.0145
     17 C          20.8788   42.7467   38.9302 C.3     1  D02        0.0899
     18 C          29.2158   41.5609   39.1733 C.3     1  D02       -0.0397
     19 C          30.9306   46.2267   38.6387 C.3     1  D02       -0.0397
     20 C          23.4780   43.8905   34.6742 C.3     1  D02       -0.0386
     21 C          28.6323   42.9014   32.0543 C.3     1  D02       -0.0423
     22 C          26.2713   42.5057   32.8011 C.3     1  D02       -0.0423
     23 C          27.0971   44.8445   32.4316 C.3     1  D02       -0.0423
     24 C          27.4808   43.4399   32.9113 C.3     1  D02        0.0482
     25 N          26.8651   43.3292   35.1945 N.am    1  D02       -0.2270
     26 N          27.9041   43.5056   34.2956 N.am    1  D02       -0.2108
     27 O          26.3704   45.5925   35.3014 O.2     1  D02       -0.2686
     28 O          30.1636   43.8834   33.9116 O.2     1  D02       -0.2684
     29 O          22.0963   43.3321   39.4037 O.3     1  D02       -0.4917
     30 H          26.3424   44.3377   38.3171 H       1  D02        0.0626
     31 H          24.5553   43.8499   39.9392 H       1  D02        0.0654
     32 H          28.8038   41.7809   36.5088 H       1  D02        0.0628
     33 H          30.2813   45.7949   36.0486 H       1  D02        0.0628
     34 H          30.2799   43.9342   39.9239 H       1  D02        0.0623
     35 H          21.0563   44.0404   35.7741 H       1  D02        0.0315
     36 H          21.3081   42.3242   36.1573 H       1  D02        0.0315
     37 H          20.1920   44.5293   37.9449 H       1  D02        0.0301
     38 H          19.3683   43.0560   37.4062 H       1  D02        0.0301
     39 H          20.1513   42.8117   39.7463 H       1  D02        0.0696
     40 H          21.0486   41.6815   38.7294 H       1  D02        0.0696
     41 H          30.0842   40.8924   39.2197 H       1  D02        0.0278
     42 H          28.9623   41.8735   40.1945 H       1  D02        0.0278
     43 H          28.3578   40.9910   38.7934 H       1  D02        0.0278
     44 H          30.1372   46.9095   38.9664 H       1  D02        0.0278
     45 H          31.5653   45.9906   39.5027 H       1  D02        0.0278
     46 H          31.5647   46.7526   37.9131 H       1  D02        0.0278
     47 H          23.6239   42.8879   34.2604 H       1  D02        0.0278
     48 H          22.4500   44.2101   34.4728 H       1  D02        0.0278
     49 H          24.1417   44.5885   34.1527 H       1  D02        0.0278
     50 H          29.5111   43.5537   32.1165 H       1  D02        0.0251
     51 H          28.9342   41.8987   32.3766 H       1  D02        0.0251
     52 H          28.3453   42.8445   30.9978 H       1  D02        0.0251
     53 H          25.4335   42.8707   33.4066 H       1  D02        0.0251
     54 H          26.5154   41.4990   33.1598 H       1  D02        0.0251
     55 H          25.9263   42.4201   31.7648 H       1  D02        0.0251
     56 H          26.2741   45.2546   33.0283 H       1  D02        0.0251
     57 H          27.9438   45.5360   32.5040 H       1  D02        0.0251
     58 H          26.7636   44.8290   31.3874 H       1  D02        0.0251
     59 H          26.6322   42.3965   35.5181 H       1  D02        0.1734
@<TRIPOS>BOND
     1     1     2   ar
     2     1     6   ar
     3     2    12   ar
     4     3     7   ar
     5     3     9   ar
     6     4     7   ar
     7     4    10   ar
     8     5     9   ar
     9     5    10   ar
    10     6    11   ar
    11     6    13    1
    12     7    14    1
    13     8    11   ar
    14     8    12   ar
    15     8    15    1
    16     9    18    1
    17    10    19    1
    18    11    20    1
    19    12    29    1
    20    13    25   am
    21    13    27    2
    22    14    26   am
    23    14    28    2
    24    15    16    1
    25    16    17    1
    26    17    29    1
    27    21    24    1
    28    22    24    1
    29    23    24    1
    30    24    26    1
    31    25    26    1
    32     1    30    1
    33     2    31    1
    34     3    32    1
    35     4    33    1
    36     5    34    1
    37    15    35    1
    38    15    36    1
    39    16    37    1
    40    16    38    1
    41    17    39    1
    42    17    40    1
    43    18    41    1
    44    18    42    1
    45    18    43    1
    46    19    44    1
    47    19    45    1
    48    19    46    1
    49    20    47    1
    50    20    48    1
    51    20    49    1
    52    21    50    1
    53    21    51    1
    54    21    52    1
    55    22    53    1
    56    22    54    1
    57    22    55    1
    58    23    56    1
    59    23    57    1
    60    23    58    1
    61    25    59    1
