@<TRIPOS>MOLECULE
Untitled Document-1
 54 55 0 0 0
SMALL
GASTEIGER

@<TRIPOS>ATOM
      1 C          23.7404   44.0237   35.2053 C.ar    1  D01       -0.0493
      2 C          25.1565   43.9601   37.1617 C.ar    1  D01       -0.0493
      3 C          22.6269   43.7592   36.0026 C.ar    1  D01       -0.0579
      4 C          24.0430   43.6956   37.9591 C.ar    1  D01       -0.0579
      5 C          29.0227   42.2917   36.2479 C.ar    1  D01       -0.0466
      6 C          30.0406   44.4827   36.2651 C.ar    1  D01       -0.0466
      7 C          29.8036   43.2447   38.3262 C.ar    1  D01       -0.0559
      8 C          25.0053   44.1241   35.7848 C.ar    1  D01        0.0382
      9 C          29.4410   43.4347   35.5666 C.ar    1  D01        0.0389
     10 C          22.7782   43.5951   37.3795 C.ar    1  D01       -0.0476
     11 C          29.2039   42.1967   37.6278 C.ar    1  D01       -0.0495
     12 C          30.2219   44.3877   37.6449 C.ar    1  D01       -0.0495
     13 C          26.1915   44.4062   34.9369 C.2     1  D01        0.2603
     14 C          29.2477   43.5350   34.1078 C.2     1  D01        0.2632
     15 C          28.7566   40.9744   38.3561 C.3     1  D01       -0.0397
     16 C          30.8620   45.5090   38.3915 C.3     1  D01       -0.0397
     17 C          20.9284   44.5896   38.7490 C.3     1  D01       -0.0613
     18 C          28.3159   42.4309   31.4474 C.3     1  D01       -0.0423
     19 C          26.1021   43.4463   32.0442 C.3     1  D01       -0.0423
     20 C          28.0993   44.9163   31.6718 C.3     1  D01       -0.0423
     21 C          21.5870   43.3134   38.2318 C.3     1  D01       -0.0305
     22 C          27.6207   43.5636   32.2115 C.3     1  D01        0.0482
     23 N          26.8420   43.2943   34.4308 N.am    1  D01       -0.2271
     24 N          27.9518   43.4651   33.6214 N.am    1  D01       -0.2108
     25 O          26.5182   45.5715   34.7276 O.2     1  D01       -0.2687
     26 O          30.2547   43.6859   33.4183 O.2     1  D01       -0.2684
     27 H          23.6118   44.1499   34.1334 H       1  D01        0.0625
     28 H          26.1372   44.0361   37.6242 H       1  D01        0.0625
     29 H          21.6453   43.6829   35.5427 H       1  D01        0.0620
     30 H          24.1700   43.5697   39.0312 H       1  D01        0.0620
     31 H          28.5541   41.4738   35.7052 H       1  D01        0.0628
     32 H          30.3676   45.3748   35.7355 H       1  D01        0.0628
     33 H          29.9454   43.1703   39.4019 H       1  D01        0.0623
     34 H          29.5650   40.2340   38.3920 H       1  D01        0.0278
     35 H          28.4559   41.2114   39.3849 H       1  D01        0.0278
     36 H          27.8863   40.5163   37.8684 H       1  D01        0.0278
     37 H          30.1025   46.2228   38.7333 H       1  D01        0.0278
     38 H          31.4131   45.1415   39.2668 H       1  D01        0.0278
     39 H          31.5851   46.0447   37.7627 H       1  D01        0.0278
     40 H          21.6419   45.1988   39.3143 H       1  D01        0.0233
     41 H          20.0882   44.3519   39.4090 H       1  D01        0.0233
     42 H          20.5482   45.1985   37.9217 H       1  D01        0.0233
     43 H          29.4054   42.4929   31.5518 H       1  D01        0.0251
     44 H          27.9983   41.4486   31.8144 H       1  D01        0.0251
     45 H          28.0899   42.4803   30.3759 H       1  D01        0.0251
     46 H          25.5821   44.2471   32.5828 H       1  D01        0.0251
     47 H          25.7327   42.4947   32.4438 H       1  D01        0.0251
     48 H          25.8111   43.5051   30.9896 H       1  D01        0.0251
     49 H          27.6170   45.7460   32.2016 H       1  D01        0.0251
     50 H          29.1834   45.0293   31.7833 H       1  D01        0.0251
     51 H          27.8570   45.0266   30.6084 H       1  D01        0.0251
     52 H          20.8429   42.7267   37.6698 H       1  D01        0.0311
     53 H          21.8692   42.6811   39.0890 H       1  D01        0.0311
     54 H          26.5084   42.3621   34.6513 H       1  D01        0.1734
@<TRIPOS>BOND
     1     1     3   ar
     2     1     8   ar
     3     2     4   ar
     4     2     8   ar
     5     3    10   ar
     6     4    10   ar
     7     5     9   ar
     8     5    11   ar
     9     6     9   ar
    10     6    12   ar
    11     7    11   ar
    12     7    12   ar
    13     8    13    1
    14     9    14    1
    15    10    21    1
    16    11    15    1
    17    12    16    1
    18    13    23   am
    19    13    25    2
    20    14    24   am
    21    14    26    2
    22    17    21    1
    23    18    22    1
    24    19    22    1
    25    20    22    1
    26    22    24    1
    27    23    24    1
    28     1    27    1
    29     2    28    1
    30     3    29    1
    31     4    30    1
    32     5    31    1
    33     6    32    1
    34     7    33    1
    35    15    34    1
    36    15    35    1
    37    15    36    1
    38    16    37    1
    39    16    38    1
    40    16    39    1
    41    17    40    1
    42    17    41    1
    43    17    42    1
    44    18    43    1
    45    18    44    1
    46    18    45    1
    47    19    46    1
    48    19    47    1
    49    19    48    1
    50    20    49    1
    51    20    50    1
    52    20    51    1
    53    21    52    1
    54    21    53    1
    55    23    54    1
