#  omega_1                 1    of    1
#                SCORE =  -560.3710
#             dG-SCORE =   -13.0914
#  HIT-OPTIMIZED SCORE =  -151.8421
#            MTS SCORE =  -529.5126
#                  ASA =  -519.6532
#                  ELE =    -2.7407
#                  HYD =   -37.9770
#                  VDW =     0.0000
#                 RMSD =     6.5753
@<TRIPOS>MOLECULE
omega_1                                                                         
   82   85    0    0    0
SMALL       
GASTEIGER      
 
@<TRIPOS>ATOM
    1 C         5.0433   -2.2220    0.3409 C.2      1 D01          0.3108
    2 C         3.8826   -4.2468    5.0950 C.3      1 D01         -0.0491
    3 C         3.7591    0.0025    4.1675 C.3      1 D01         -0.0488
    4 C         3.5379   -4.2191    6.5836 C.3      1 D01         -0.0491
    5 C         3.6007   -0.5277    5.5997 C.3      1 D01         -0.0468
    6 C         6.5731   -0.3823   -0.2245 C.3      1 D01         -0.0110
    7 C         5.7553    1.1691    2.1332 C.3      1 D01         -0.0180
    8 C         5.1311   -3.3056    2.5162 C.3      1 D01          0.0958
    9 C         5.8577   -1.0922    0.9504 C.3      1 D01          0.0645
   10 C         4.1771   -2.7885    4.7643 C.3      1 D01         -0.0292
   11 C         4.7050   -0.8535    3.2714 C.3      1 D01         -0.0286
   12 C         4.2200   -2.3482    3.2891 C.3      1 D01          0.0000
   13 C         3.4212   -2.7226    6.9924 C.3      1 D01         -0.0304
   14 C         7.3427    0.8528    0.2059 C.3      1 D01          0.0818
   15 C         6.3828    1.8080    0.8942 C.3      1 D01          0.0816
   16 C         3.1695   -2.0016    5.6382 C.3      1 D01         -0.0257
   17 C         4.9815   -0.1691    1.8605 C.3      1 D01         -0.0135
   18 C         1.7021   -2.1512    5.1795 C.3      1 D01         -0.0590
   19 C         3.6534    0.1903    1.1528 C.3      1 D01         -0.0585
   20 C         2.2055   -1.0750    8.5433 C.3      1 D01         -0.0597
   21 C        -1.4945   -4.2780   11.7698 C.3      1 D01         -0.0623
   22 C         0.1271   -2.6910   12.7863 C.3      1 D01         -0.0623
   23 C         0.6871   -5.2015    9.8237 C.3      1 D01         -0.0597
   24 C         2.4589   -2.5460    8.2007 C.3      1 D01         -0.0120
   25 C        -0.0026   -3.9604   11.9341 C.3      1 D01         -0.0417
   26 C         0.7291   -3.8464   10.5548 C.3      1 D01         -0.0130
   27 C         3.0393   -3.3111    9.4255 C.3      1 D01          0.0841
   28 C         2.1847   -3.3309   10.7037 C.3      1 D01          0.0841
   29 O         4.5961   -2.1843   -0.8025 O.2      1 D01         -0.2505
   30 O         4.8165   -3.2944    1.1206 O.3      1 D01         -0.4641
   31 O         8.3923    0.4864    1.0995 O.3      1 D01         -0.3892
   32 O         7.0978    2.9823    1.2611 O.3      1 D01         -0.3892
   33 O         4.2974   -2.7231    9.7908 O.3      1 D01         -0.3890
   34 O         2.8701   -4.1673   11.6461 O.3      1 D01         -0.3890
   35 H         4.7452   -4.8977    4.9190 H        1 D01          0.0268
   36 H         3.0441   -4.6355    4.5071 H        1 D01          0.0268
   37 H         2.7676    0.0669    3.7064 H        1 D01          0.0268
   38 H         4.1297    1.0285    4.2495 H        1 D01          0.0268
   39 H         2.6059   -4.7690    6.7549 H        1 D01          0.0268
   40 H         4.3254   -4.7128    7.1645 H        1 D01          0.0268
   41 H         4.5572   -0.4007    6.1229 H        1 D01          0.0271
   42 H         2.8795    0.1099    6.1194 H        1 D01          0.0271
   43 H         7.2648   -1.1005   -0.6843 H        1 D01          0.0299
   44 H         5.8563   -0.0932   -1.0034 H        1 D01          0.0299
   45 H         6.5451    0.9996    2.8780 H        1 D01          0.0296
   46 H         5.0943    1.9149    2.5911 H        1 D01          0.0296
   47 H         6.1972   -3.1377    2.6986 H        1 D01          0.0700
   48 H         4.9429   -4.3416    2.8075 H        1 D01          0.0700
   49 H         6.6748   -1.5148    1.5453 H        1 D01          0.0420
   50 H         5.1909   -2.6036    5.1609 H        1 D01          0.0310
   51 H         5.6815   -0.8594    3.7811 H        1 D01          0.0310
   52 H         3.2187   -2.3984    2.8462 H        1 D01          0.0339
   53 H         4.4199   -2.4009    7.3208 H        1 D01          0.0310
   54 H         7.8118    1.3406   -0.6552 H        1 D01          0.0619
   55 H         5.5994    2.1115    0.1908 H        1 D01          0.0619
   56 H         1.3555   -3.1888    5.2159 H        1 D01          0.0235
   57 H         1.5471   -1.7999    4.1558 H        1 D01          0.0235
   58 H         1.0282   -1.5698    5.8161 H        1 D01          0.0235
   59 H         2.9756   -0.6677    1.1007 H        1 D01          0.0235
   60 H         3.8261    0.5444    0.1320 H        1 D01          0.0235
   61 H         3.1209    0.9942    1.6724 H        1 D01          0.0235
   62 H         3.1405   -0.5293    8.7049 H        1 D01          0.0233
   63 H         1.6457   -0.5741    7.7509 H        1 D01          0.0233
   64 H         1.5907   -0.9755    9.4426 H        1 D01          0.0233
   65 H        -1.9973   -3.5156   11.1653 H        1 D01          0.0232
   66 H        -1.9864   -4.3168   12.7473 H        1 D01          0.0232
   67 H        -1.6569   -5.2522   11.3015 H        1 D01          0.0232
   68 H        -0.2070   -1.8069   12.2337 H        1 D01          0.0232
   69 H        -0.4753   -2.7691   13.6980 H        1 D01          0.0232
   70 H         1.1595   -2.5282   13.1101 H        1 D01          0.0232
   71 H         1.1876   -5.9830   10.4047 H        1 D01          0.0233
   72 H         1.1679   -5.1507    8.8435 H        1 D01          0.0233
   73 H        -0.3397   -5.5246    9.6318 H        1 D01          0.0233
   74 H         1.4926   -2.9909    7.9366 H        1 D01          0.0327
   75 H         0.4447   -4.7858   12.5038 H        1 D01          0.0299
   76 H         0.1797   -3.1224    9.9393 H        1 D01          0.0326
   77 H         3.2645   -4.3505    9.1636 H        1 D01          0.0622
   78 H         2.1819   -2.3264   11.1398 H        1 D01          0.0622
   79 H         8.9671   -0.1451    0.6344 H        1 D01          0.2099
   80 H         6.4616    3.5951    1.6666 H        1 D01          0.2099
   81 H         4.9726   -3.0868    9.1932 H        1 D01          0.2099
   82 H         3.7804   -3.8301   11.7142 H        1 D01          0.2099
@<TRIPOS>BOND
     1     1     9   1 
     2     1    29   2 
     3     1    30   1 
     4     2     4   1 
     5     2    10   1 
     6     3     5   1 
     7     3    11   1 
     8     4    13   1 
     9     5    16   1 
    10     6     9   1 
    11     6    14   1 
    12     7    15   1 
    13     7    17   1 
    14     8    12   1 
    15     8    30   1 
    16     9    17   1 
    17    10    12   1 
    18    10    16   1 
    19    11    12   1 
    20    11    17   1 
    21    13    16   1 
    22    13    24   1 
    23    14    15   1 
    24    14    31   1 
    25    15    32   1 
    26    16    18   1 
    27    17    19   1 
    28    20    24   1 
    29    21    25   1 
    30    22    25   1 
    31    23    26   1 
    32    24    27   1 
    33    25    26   1 
    34    26    28   1 
    35    27    28   1 
    36    27    33   1 
    37    28    34   1 
    38     2    35   1 
    39     2    36   1 
    40     3    37   1 
    41     3    38   1 
    42     4    39   1 
    43     4    40   1 
    44     5    41   1 
    45     5    42   1 
    46     6    43   1 
    47     6    44   1 
    48     7    45   1 
    49     7    46   1 
    50     8    47   1 
    51     8    48   1 
    52     9    49   1 
    53    10    50   1 
    54    11    51   1 
    55    12    52   1 
    56    13    53   1 
    57    14    54   1 
    58    15    55   1 
    59    18    56   1 
    60    18    57   1 
    61    18    58   1 
    62    19    59   1 
    63    19    60   1 
    64    19    61   1 
    65    20    62   1 
    66    20    63   1 
    67    20    64   1 
    68    21    65   1 
    69    21    66   1 
    70    21    67   1 
    71    22    68   1 
    72    22    69   1 
    73    22    70   1 
    74    23    71   1 
    75    23    72   1 
    76    23    73   1 
    77    24    74   1 
    78    25    75   1 
    79    26    76   1 
    80    27    77   1 
    81    28    78   1 
    82    31    79   1 
    83    32    80   1 
    84    33    81   1 
    85    34    82   1 
#MOLECULE END
 
