 
#  Microsoft               2    of    3
#                SCORE =  -354.6933
#             dG-SCORE =    -8.8629
#  HIT-OPTIMIZED SCORE =   -99.9365
#            MTS SCORE =  -328.7761
#                  ASA =  -351.2258
#                  ELE =     0.2314
#                  HYD =    -3.6990
#                  VDW =     0.0000
#                 RMSD =     5.8435
@<TRIPOS>MOLECULE
Microsoft                                                                       
   49   51    0    0    0
SMALL       
GASTEIGER      
 
@<TRIPOS>ATOM
    1 C         1.0703   -2.4685    8.3090 C.ar     1 D02         -0.0493
    2 C         6.1829    0.5848    1.8697 C.ar     1 D02         -0.0467
    3 C         1.6444   -2.2409    7.0584 C.ar     1 D02         -0.0372
    4 C         6.2917    1.8760    1.3535 C.ar     1 D02         -0.0229
    5 C         3.1437   -3.4360    9.0849 C.ar     1 D02         -0.0141
    6 C         4.8268   -0.0579   -0.0238 C.ar     1 D02         -0.0115
    7 C         1.8199   -3.0661    9.3223 C.ar     1 D02          0.0202
    8 C         5.4508   -0.3823    1.1807 C.ar     1 D02          0.0398
    9 C         2.9682   -2.6109    6.8210 C.ar     1 D02          0.0655
   10 C         5.6677    2.2006    0.1490 C.ar     1 D02          0.1584
   11 C         3.7179   -3.2084    7.8343 C.ar     1 D02          0.1450
   12 C         4.9352    1.2336   -0.5397 C.ar     1 D02          0.1591
   13 C         1.2222   -3.3038   10.6266 C.2      1 D02          0.1632
   14 C         5.3365   -1.7449    1.7251 C.2      1 D02          0.2468
   15 C         3.1065   -1.2577    4.7380 C.3      1 D02          0.0281
   16 C         4.5770   -3.2742    5.0457 C.3      1 D02          0.0281
   17 C         4.2336   -0.8077    3.8083 C.3      1 D02          0.0307
   18 C         4.5811   -3.2533    3.5189 C.3      1 D02          0.0307
   19 C        -1.0494   -4.0893   12.5114 C.3      1 D02         -0.0649
   20 C         0.1237   -2.3479   11.1171 C.3      1 D02          0.0102
   21 C        -1.2016   -3.0510   11.4116 C.3      1 D02         -0.0489
   22 N         3.5394   -2.3826    5.5715 N.pl3    1 D02         -0.3247
   23 N         4.7512   -1.9051    2.9851 N.am     1 D02         -0.2945
   24 O         1.5596   -4.2467   11.3625 O.2      1 D02         -0.2921
   25 O         5.7745   -2.6567    1.0248 O.2      1 D02         -0.2700
   26 F         5.7717    3.4406   -0.3463 F        1 D02         -0.2025
   27 F         4.9910   -3.5680    7.6172 F        1 D02         -0.2035
   28 F         4.3361    1.5454   -1.6963 F        1 D02         -0.2025
   29 H         0.0378   -2.1763    8.4833 H        1 D02          0.0625
   30 H         6.6727    0.3424    2.8092 H        1 D02          0.0626
   31 H         1.0507   -1.7746    6.2763 H        1 D02          0.0637
   32 H         6.8618    2.6294    1.8893 H        1 D02          0.0647
   33 H         3.7371   -3.9023    9.8672 H        1 D02          0.0654
   34 H         4.2536   -0.8035   -0.5686 H        1 D02          0.0655
   35 H         2.8048   -0.4218    5.3822 H        1 D02          0.0479
   36 H         2.2366   -1.5487    4.1372 H        1 D02          0.0479
   37 H         4.3774   -4.2903    5.4068 H        1 D02          0.0479
   38 H         5.5700   -2.9867    5.4128 H        1 D02          0.0479
   39 H         3.8711   -0.0378    3.1161 H        1 D02          0.0480
   40 H         5.0437   -0.3676    4.3985 H        1 D02          0.0480
   41 H         5.4124   -3.8548    3.1308 H        1 D02          0.0480
   42 H         3.6543   -3.6910    3.1324 H        1 D02          0.0480
   43 H        -0.6763   -3.6323   13.4335 H        1 D02          0.0230
   44 H        -0.3399   -4.8644   12.2054 H        1 D02          0.0230
   45 H        -2.0069   -4.5727   12.7298 H        1 D02          0.0230
   46 H        -0.0381   -1.5890   10.3429 H        1 D02          0.0345
   47 H         0.4800   -1.8594   12.0312 H        1 D02          0.0345
   48 H        -1.5759   -3.5390   10.5036 H        1 D02          0.0267
   49 H        -1.9572   -2.3152   11.7118 H        1 D02          0.0267
@<TRIPOS>BOND
     1     1     3   ar
     2     1     7   ar
     3     2     4   ar
     4     2     8   ar
     5     3     9   ar
     6     4    10   ar
     7     5     7   ar
     8     5    11   ar
     9     6     8   ar
    10     6    12   ar
    11     7    13   1 
    12     8    14   1 
    13     9    11   ar
    14     9    22   1 
    15    10    12   ar
    16    10    26   1 
    17    11    27   1 
    18    12    28   1 
    19    13    20   1 
    20    13    24   2 
    21    14    23   am
    22    14    25   2 
    23    15    17   1 
    24    15    22   1 
    25    16    18   1 
    26    16    22   1 
    27    17    23   1 
    28    18    23   1 
    29    19    21   1 
    30    20    21   1 
    31     1    29   1 
    32     2    30   1 
    33     3    31   1 
    34     4    32   1 
    35     5    33   1 
    36     6    34   1 
    37    15    35   1 
    38    15    36   1 
    39    16    37   1 
    40    16    38   1 
    41    17    39   1 
    42    17    40   1 
    43    18    41   1 
    44    18    42   1 
    45    19    43   1 
    46    19    44   1 
    47    19    45   1 
    48    20    46   1 
    49    20    47   1 
    50    21    48   1 
    51    21    49   1 
#MOLECULE END
